# Draft CIF file generated with Atomsk

data_I

_audit_creation_date      'Feb. 17, 2025'
_audit_creation_method    'Draft CIF file generated with Atomsk'
 
_chemical_name_common             ?
_chemical_melting_point           ?
_chemical_formula_iupac           'O24 H48'
_chemical_formula_moiety          'O24 H48'
_chemical_formula_sum             'O24 H48'
_chemical_formula_weight          432.360
_chemical_compound_source         ?
_chemical_absolute_configuration  ?
_exptl_crystal_description        'EDIT-ENTRY'
_diffrn_measurement_device_type   'EDIT-ENTRY'
 
_space_group_IT_number            1
_space_group_crystal_system       orthorhombic
_symmetry_space_group_name_Hall   'P 1'
_symmetry_space_group_name_H-M    'P 1'
 
loop_
_space_group_symop_operation_xyz
'+x,+y,+z'
 
_cell_length_a                    7.8200
_cell_length_b                    13.5446
_cell_length_c                    7.3600
_cell_angle_alpha                 90.0000
_cell_angle_beta                  90.0000
_cell_angle_gamma                 90.0000
_cell_volume                      779.5643
 
loop_
 _atom_site_label
 _atom_site_type_symbol
 _atom_site_fract_x
 _atom_site_fract_y
 _atom_site_fract_z
 _atom_site_occupancy
O1  O2-  0.833350  0.166650  0.437500 1.000000
O2  O2-  0.333350  0.666650  0.437500 1.000000
H1  H+  0.281000  0.386000  0.475000 1.000000
H2  H+  0.781000  0.886000  0.475000 1.000000
H3  H+  0.666650  0.333350  0.674000 1.000000
H4  H+  0.166650  0.833350  0.674000 1.000000
H5  H+  0.781000  0.114000  0.475000 1.000000
H6  H+  0.281000  0.614000  0.475000 1.000000
H7  H+  0.438000  0.000000  0.026000 1.000000
H8  H+  0.938000  0.500000  0.026000 1.000000
H9  H+  0.719500  0.052500  0.975000 1.000000
H10  H+  0.219500  0.552500  0.975000 1.000000
H11  H+  0.780500  0.447500  0.475000 1.000000
H12  H+  0.280500  0.947500  0.475000 1.000000
H13  H+  0.219500  0.447500  0.975000 1.000000
H14  H+  0.719500  0.947500  0.975000 1.000000
O3  O2-  0.166650  0.166650  0.562500 1.000000
O4  O2-  0.666650  0.666650  0.562500 1.000000
H15  H+  0.061500  0.166500  0.975000 1.000000
O5  O2-  0.666650  0.333350  0.937500 1.000000
O6  O2-  0.333350  0.333350  0.437500 1.000000
H16  H+  0.719000  0.281000  0.526000 1.000000
O7  O2-  0.166650  0.833350  0.937500 1.000000
H17  H+  0.219000  0.781000  0.526000 1.000000
O8  O2-  0.833350  0.833350  0.437500 1.000000
O9  O2-  0.666650  0.333350  0.562500 1.000000
O10  O2-  0.166650  0.833350  0.562500 1.000000
H18  H+  0.833350  0.166650  0.174000 1.000000
H19  H+  0.219000  0.114000  0.975000 1.000000
H20  H+  0.938500  0.166500  0.475000 1.000000
H21  H+  0.333350  0.666650  0.174000 1.000000
H22  H+  0.719000  0.614000  0.975000 1.000000
H23  H+  0.438500  0.666500  0.475000 1.000000
H24  H+  0.781000  0.219000  0.026000 1.000000
H25  H+  0.719000  0.386000  0.975000 1.000000
H26  H+  0.281000  0.719000  0.026000 1.000000
H27  H+  0.219000  0.886000  0.975000 1.000000
O11  O2-  0.833350  0.166650  0.062500 1.000000
H28  H+  0.166650  0.166650  0.674000 1.000000
H29  H+  0.333350  0.333350  0.174000 1.000000
O12  O2-  0.333350  0.666650  0.062500 1.000000
H30  H+  0.280500  0.052500  0.475000 1.000000
H31  H+  0.666650  0.666650  0.674000 1.000000
H32  H+  0.561500  0.666500  0.975000 1.000000
H33  H+  0.833350  0.833350  0.174000 1.000000
H34  H+  0.780500  0.552500  0.475000 1.000000
H35  H+  0.561500  0.333500  0.975000 1.000000
H36  H+  0.219000  0.219000  0.526000 1.000000
H37  H+  0.061500  0.833500  0.975000 1.000000
H38  H+  0.438500  0.333500  0.475000 1.000000
H39  H+  0.281000  0.281000  0.026000 1.000000
H40  H+  0.666700  0.000000  0.674000 1.000000
H41  H+  0.719000  0.719000  0.526000 1.000000
H42  H+  0.938500  0.833500  0.475000 1.000000
H43  H+  0.781000  0.781000  0.026000 1.000000
H44  H+  0.166700  0.500000  0.674000 1.000000
O13  O2-  0.333350  0.333350  0.062500 1.000000
O14  O2-  0.666700  0.000000  0.562500 1.000000
O15  O2-  0.833350  0.833350  0.062500 1.000000
O16  O2-  0.333300  0.000000  0.062500 1.000000
O17  O2-  0.166700  0.500000  0.562500 1.000000
H45  H+  0.562000  0.000000  0.526000 1.000000
O18  O2-  0.833300  0.500000  0.062500 1.000000
H46  H+  0.062000  0.500000  0.526000 1.000000
O19  O2-  0.166650  0.166650  0.937500 1.000000
O20  O2-  0.333300  0.000000  0.437500 1.000000
O21  O2-  0.666650  0.666650  0.937500 1.000000
O22  O2-  0.666700  0.000000  0.937500 1.000000
O23  O2-  0.833300  0.500000  0.437500 1.000000
O24  O2-  0.166700  0.500000  0.937500 1.000000
H47  H+  0.333300  0.000000  0.174000 1.000000
H48  H+  0.833300  0.500000  0.174000 1.000000

# end of cif file
